Version 4
SHEET 1 1752 680
WIRE 1168 -64 896 -64
WIRE 1296 -64 1232 -64
WIRE 480 -48 208 -48
WIRE 608 -48 544 -48
WIRE 1152 32 1104 32
WIRE 1296 32 1296 -64
WIRE 1296 32 1232 32
WIRE -384 48 -432 48
WIRE -272 48 -304 48
WIRE -224 48 -272 48
WIRE -32 48 -32 16
WIRE -32 48 -144 48
WIRE 80 48 -32 48
WIRE 464 48 416 48
WIRE 608 48 608 -48
WIRE 608 48 544 48
WIRE -432 64 -432 48
WIRE 1184 144 1184 128
WIRE -336 160 -336 128
WIRE 496 160 496 144
WIRE 1104 160 1104 32
WIRE 1152 160 1104 160
WIRE 416 176 416 48
WIRE 464 176 416 176
WIRE 1296 176 1296 32
WIRE 1296 176 1216 176
WIRE 1392 176 1392 128
WIRE 1392 176 1296 176
WIRE -192 192 -192 160
WIRE 608 192 608 48
WIRE 608 192 528 192
WIRE 704 192 704 128
WIRE 704 192 608 192
WIRE 768 192 704 192
WIRE 896 192 896 -64
WIRE 896 192 848 192
WIRE 960 192 896 192
WIRE 1104 192 1040 192
WIRE 1152 192 1104 192
WIRE -272 208 -272 48
WIRE -224 208 -272 208
WIRE 80 208 80 48
WIRE 208 208 208 -48
WIRE 208 208 160 208
WIRE 272 208 208 208
WIRE 416 208 352 208
WIRE 464 208 416 208
WIRE -32 224 -32 48
WIRE -32 224 -160 224
WIRE 1184 224 1184 208
WIRE -752 240 -800 240
WIRE -576 240 -672 240
WIRE -336 240 -336 224
WIRE -336 240 -576 240
WIRE -224 240 -336 240
WIRE 496 240 496 224
WIRE 1104 240 1104 192
WIRE -336 256 -336 240
WIRE 416 256 416 208
WIRE -1360 272 -1360 256
WIRE -1200 272 -1200 256
WIRE -576 272 -576 240
WIRE -1008 288 -1008 176
WIRE -192 288 -192 256
WIRE -32 288 -32 224
WIRE -336 336 -336 320
WIRE 1104 336 1104 304
WIRE 416 352 416 320
WIRE -1360 368 -1360 352
WIRE -1200 368 -1200 352
WIRE -576 368 -576 352
WIRE -1008 384 -1008 368
WIRE -32 384 -32 368
WIRE -576 464 -576 448
FLAG -1200 368 0
FLAG -1200 256 VCC
FLAG -1008 384 0
FLAG 416 352 0
FLAG 496 144 VCC
FLAG -1008 176 VIN
FLAG 496 240 0
FLAG -192 288 0
FLAG -192 160 VCC
FLAG -32 16 VBUF
FLAG -336 128 VCC
FLAG -336 336 0
FLAG 704 128 VOUT
FLAG 1104 336 0
FLAG 1184 128 VCC
FLAG 1184 224 0
FLAG 1392 128 VOUT_2
FLAG -32 384 0
FLAG -576 464 0
FLAG -432 64 0
FLAG -1360 368 0
FLAG -1360 256 VTEST
FLAG -800 240 VIN
SYMBOL voltage -1200 256 R0
WINDOW 123 0 0 Left 0
WINDOW 39 0 0 Left 0
SYMATTR InstName V1
SYMATTR Value 3.3V
SYMBOL voltage -1008 272 R0
WINDOW 123 41 72 Left 2
WINDOW 39 0 0 Left 0
WINDOW 3 41 47 Left 2
SYMATTR Value2 AC 1
SYMATTR Value SINE(0 .5 5E6 0 0 0 50)
SYMATTR InstName V2
SYMBOL res 560 32 R90
WINDOW 0 0 56 VBottom 2
WINDOW 3 32 56 VTop 2
SYMATTR InstName R3
SYMATTR Value 440
SYMBOL res 368 192 R90
WINDOW 0 0 56 VBottom 2
WINDOW 3 32 56 VTop 2
SYMATTR InstName R2
SYMATTR Value 220
SYMBOL res 176 192 R90
WINDOW 0 0 56 VBottom 2
WINDOW 3 32 56 VTop 2
SYMATTR InstName R1
SYMATTR Value 220
SYMBOL cap 400 256 R0
SYMATTR InstName C2
SYMATTR Value 100e-12
SYMBOL cap 544 -64 R90
WINDOW 0 0 32 VBottom 2
WINDOW 3 32 32 VTop 2
SYMATTR InstName C1
SYMATTR Value 200e-12
SYMBOL res -128 32 R90
WINDOW 0 0 56 VBottom 2
WINDOW 3 32 56 VTop 2
SYMATTR InstName R4
SYMATTR Value 100
SYMBOL res -656 224 R90
WINDOW 0 0 56 VBottom 2
WINDOW 3 32 56 VTop 2
SYMATTR InstName R5
SYMATTR Value 1K
SYMBOL diode -320 224 R180
WINDOW 0 24 64 Left 2
WINDOW 3 33 36 Left 2
SYMATTR InstName D1
SYMATTR Value 1N4148
SYMBOL diode -320 320 R180
WINDOW 0 24 64 Left 2
WINDOW 3 42 37 Left 2
SYMATTR InstName D2
SYMATTR Value 1N4148
SYMBOL res 1248 16 R90
WINDOW 0 0 56 VBottom 2
WINDOW 3 32 56 VTop 2
SYMATTR InstName R6
SYMATTR Value 440
SYMBOL res 1056 176 R90
WINDOW 0 0 56 VBottom 2
WINDOW 3 32 56 VTop 2
SYMATTR InstName R7
SYMATTR Value 220
SYMBOL res 864 176 R90
WINDOW 0 0 56 VBottom 2
WINDOW 3 32 56 VTop 2
SYMATTR InstName R8
SYMATTR Value 220
SYMBOL cap 1088 240 R0
SYMATTR InstName C3
SYMATTR Value 100e-12
SYMBOL cap 1232 -80 R90
WINDOW 0 0 32 VBottom 2
WINDOW 3 32 32 VTop 2
SYMATTR InstName C4
SYMATTR Value 200e-12
SYMBOL res -48 272 R0
SYMATTR InstName R9
SYMATTR Value 10K
SYMBOL res -592 256 R0
SYMATTR InstName R10
SYMATTR Value 1K
SYMBOL voltage -576 352 R0
WINDOW 123 0 0 Left 0
WINDOW 39 0 0 Left 0
SYMATTR InstName V3
SYMATTR Value 1.5V
SYMBOL res -288 32 R90
WINDOW 0 0 56 VBottom 2
WINDOW 3 32 56 VTop 2
SYMATTR InstName R11
SYMATTR Value 100
SYMBOL voltage -1360 256 R0
WINDOW 123 0 0 Left 0
WINDOW 39 0 0 Left 0
SYMATTR InstName V4
SYMATTR Value 1V
SYMBOL OpAmps\\ADA4896-2 -192 160 R0
SYMATTR InstName U2
SYMBOL OpAmps\\LT1818 496 192 R0
SYMATTR InstName U1
SYMBOL OpAmps\\LT1818 1184 176 R0
SYMATTR InstName U3
TEXT -1032 432 Left 2 !;tran 10e-6
TEXT -1032 456 Left 2 !.ac dec 100 100 10e6
TEXT -1136 -72 Left 2 ;R3 and R6 can be their value or 0.  When sum of input resistors a balance of the input impedance to both + / - terminals.\nOtherwise it does not play into circuit calculation
TEXT -1136 32 Left 2 ;w = 2piF = 1 / SQRT(R1*R2*C1*C2)\nQ = SQRT(R1*R2*C1*C2) / (C2(R1 + R2))
TEXT 688 312 Left 2 ;Per Stage -40dB/Decade\nPer Q = 0.707\nTotal Roll Off -80dB/Decade\nvoltage noise per stage = 2.44uV @5MHz\ncumulative voltage noise - vector sum = 3.87uV @5MHz
TEXT -432 432 Left 2 ;U2 ADA4896 has a wider input Common Mode Voltage range.  \nU1 and U3 are cheaper componets but still have a large GBP necessary for filter operation
